/*--------------------------------*- C++ -*----------------------------------*\
  =========                 |
  \\      /  F ield         | OpenFOAM: The Open Source CFD Toolbox
   \\    /   O peration     | Website:  https://openfoam.org
    \\  /    A nd           | Version:  12
     \\/     M anipulation  |
\*---------------------------------------------------------------------------*/
FoamFile
{
    format      ascii;
    class       volScalarField;
    location    "0";
    object      muMix;
}
// * * * * * * * * * * * * * * * * * * * * * * * * * * * * * * * * * * * * * //

dimensions      [1 -1 -1 0 0 0 0];

internalField   uniform 1.84e-05;

boundaryField
{
    top
    {
        type            calculated;
        value           uniform 1.84e-05;
    }
    axis
    {
        type            calculated;
        value           uniform 1.84e-05;
    }
    side
    {
        type            calculated;
        value           uniform 1.84e-05;
    }
    front
    {
        type            empty;
    }
    back
    {
        type            empty;
    }
    groundAndWall
    {
        type            calculated;
        value           uniform 1.84e-05;
    }
    nozzel
    {
        type            calculated;
        value           uniform 1.84e-05;
    }
    inlet
    {
        type            calculated;
        value           uniform 1.84e-05;
    }
}


// ************************************************************************* //
