/*--------------------------------*- C++ -*----------------------------------*\
  =========                 |
  \\      /  F ield         | OpenFOAM: The Open Source CFD Toolbox
   \\    /   O peration     | Website:  https://openfoam.org
    \\  /    A nd           | Version:  dev
     \\/     M anipulation  |
\*---------------------------------------------------------------------------*/
FoamFile
{
    format      ascii;
    class       extendedFeatureEdgeMesh;
    location    "constant/extendedFeatureEdgeMesh";
    object      surface_in.extendedFeatureEdgeMesh;
}
// * * * * * * * * * * * * * * * * * * * * * * * * * * * * * * * * * * * * * //

// points

614
(
(-6.25 3.125 653.056640625)
(-5 -5 654.265563965)
(5 5 652.98638916)
(-4.375 1.875 633.361938477)
(0 5 632.860961914)
(-5 0 633.674194336)
(-5 -4.375 653.51385498)
(3.125 -3.75 634.060119629)
(0 -5 634.180541992)
(-1.875 4.375 632.934692383)
(-8.125 12.5 652.33013916)
(11.875 9.375 653.961853027)
(10 11.25 653.268798828)
(-3.75 3.125 633.155761719)
(5 0 633.747070312)
(4.375 1.875 633.476745605)
(4.375 -1.875 633.910644531)
(5 4.375 652.408203125)
(3.125 3.75 633.15625)
(-7.5 13.125 652.313049316)
(-10.625 10.625 652.888793945)
(-10 11.25 652.755737305)
(-10.625 -10.625 656.328735352)
(10.625 10.625 653.442932129)
(-3.125 3.75 633.046386719)
(3.75 3.125 633.277770996)
(1.875 4.375 633.004882812)
(2.5 4.375 634.057006836)
(-3.75 -3.125 634.059387207)
(3.75 -5.625 653.722717285)
(1.875 -4.375 634.100463867)
(-3.125 -3.75 634.115600586)
(10.625 -10.625 655.333129883)
(10 -11.25 655.330749512)
(11.25 -10 655.399230957)
(9.375 -11.875 655.392089844)
(3.75 -3.125 634.015991211)
(-4.375 -1.875 633.911621094)
(8.125 -12.5 655.216308594)
(-1.875 -4.375 634.145996094)
(-24.375 5 666.93963623)
(-23.75 5.625 666.631652832)
(-23.125 8.125 666.101501465)
(-23.75 7.5 666.377929688)
(-23.75 -7.5 669.138305664)
(-23.125 -8.125 669.073974609)
(-19.375 15 664.430175781)
(-8.125 23.125 661.47265625)
(-7.5 23.75 661.329040527)
(-11.875 21.875 662.199279785)
(-12.5 21.25 662.333312988)
(-19.375 -15 669.665161133)
(12.5 -21.25 666.030334473)
(11.875 -21.875 666.050537109)
(-5 24.375 661.061157227)
(-5.625 23.75 661.153991699)
(-19.375 15.625 664.38848877)
(-23.125 9.375 665.994018555)
(-4.375 2.5 634.291381836)
(-3.75 1.875 633.329345703)
(-3.75 2.5 633.24206543)
(-5 4.375 652.216186523)
(-3.75 6.25 652.675537109)
(-3.125 5.625 651.315734863)
(-3.125 6.25 652.457458496)
(-19.375 -15.625 669.827392578)
(-15 -19.375 669.456542969)
(-15.625 -19.375 669.642150879)
(8.125 -23.125 666.10748291)
(7.5 -23.75 666.162963867)
(0.625 4.375 632.955566406)
(0.625 5 633.894165039)
(0 4.375 632.940673828)
(-10 22.5 661.838989258)
(-9.375 23.125 661.699035645)
(21.25 -12.5 667.423095703)
(21.875 -11.875 667.587097168)
(22.5 -10 667.780517578)
(23.125 -9.375 667.997131348)
(-23.125 -9.375 669.407958984)
(-22.5 -10 669.340942383)
(-23.75 -5.625 668.704711914)
(-24.375 -5 668.789428711)
(23.75 -7.5 668.258056641)
(23.125 -8.125 668.026733398)
(-12.5 8.75 653.637390137)
(-12.5 7.5 653.528808594)
(9.375 23.125 661.818603516)
(-21.875 11.875 665.363586426)
(-21.25 12.5 665.116943359)
(-5 -0.625 634.78515625)
(-21.875 -11.875 669.62890625)
(-21.25 -12.5 669.58215332)
(5 -24.375 666.431884766)
(5.625 -23.75 666.310424805)
(7.5 23.75 661.388122559)
(8.125 23.125 661.568847656)
(13.75 20.625 663.05279541)
(10 -22.5 666.0703125)
(9.375 -23.125 666.107177734)
(5 24.375 661.081604004)
(5.625 23.75 661.196838379)
(13.75 -20.625 666.122436523)
(21.25 12.5 666.389282227)
(21.875 11.875 666.67779541)
(23.75 -5.625 668.256103516)
(24.375 -5 668.483520508)
(23.125 9.375 667.389770508)
(22.5 10 667.069763184)
(-11.875 -21.875 669.153076172)
(-12.5 -21.25 669.156555176)
(-10 -22.5 668.80267334)
(-9.375 -23.125 668.782470703)
(23.125 8.125 667.492980957)
(23.75 7.5 667.811035156)
(24.375 5 668.21697998)
(23.75 5.625 667.919372559)
(-5 -24.375 667.987854004)
(-5.625 -23.75 667.993896484)
(-8.125 -23.125 668.435302734)
(-7.5 -23.75 668.405212402)
(-10.625 22.5 661.951293945)
(-13.125 21.25 662.492858887)
(13.125 20.625 662.870117188)
(-6.25 4.375 653.136657715)
(-5.625 3.75 652.596435547)
(-5.625 5 652.996032715)
(-6.875 3.125 653.361083984)
(-4.375 -5.625 654.350524902)
(-4.375 -5 653.559997559)
(-5 -5.625 654.538208008)
(-5 -3.75 651.933898926)
(-5.625 -5 654.496826172)
(3.125 -4.375 642.437011719)
(3.75 -3.75 641.030761719)
(2.5 -3.75 634.037841797)
(2.5 -4.375 635.132080078)
(4.375 -5 653.429016113)
(5 -5 654.11730957)
(0.625 -4.375 634.091125488)
(1.25 -5 637.971923828)
(1.25 -4.375 634.092712402)
(0.625 -5 635.191589355)
(-3.75 -6.25 654.479064941)
(0 -4.375 634.095703125)
(-0.625 -5 635.210876465)
(-0.625 -4.375 634.106445312)
(-0.625 5 633.869445801)
(-1.25 4.375 632.930297852)
(-1.875 3.75 633.017150879)
(6.25 3.125 653.267028809)
(-8.75 12.5 652.663391113)
(-6.25 -3.75 654.304870605)
(-6.875 -3.125 654.322509766)
(-5.625 -3.125 652.723876953)
(-10.625 -21.875 668.818359375)
(4.375 -6.25 654.399108887)
(10.625 -22.5 666.074829102)
(21.875 11.25 666.730224609)
(21.25 13.125 666.326477051)
(11.875 21.875 662.440002441)
(-4.375 1.25 633.45111084)
(-5 0.625 634.59954834)
(-4.375 0 633.632385254)
(-3.125 3.125 633.13104248)
(-2.5 6.25 652.061645508)
(5 -0.625 634.835266113)
(4.375 -0.625 633.767150879)
(4.375 0.625 633.622497559)
(-3.75 -1.875 633.871765137)
(4.375 -1.25 633.839050293)
(3.75 -1.875 633.869934082)
(3.75 -2.5 633.943054199)
(4.375 -2.5 634.999511719)
(6.25 -3.75 654.203308105)
(1.25 4.375 632.976928711)
(1.875 6.25 651.604980469)
(6.25 4.375 653.380493164)
(5.625 5 653.226318359)
(3.125 4.375 641.382751465)
(3.75 3.75 640.145019531)
(-3.125 6.875 652.626647949)
(-10 10.625 652.771362305)
(-10 -10.625 656.180480957)
(-21.875 10.625 665.467468262)
(21.25 -13.125 667.402648926)
(21.875 -11.25 667.594604492)
(22.5 -10.625 667.76940918)
(7.5 12.5 652.623291016)
(6.875 13.75 652.756103516)
(9.375 11.25 653.094421387)
(10 10.625 653.288146973)
(10.625 10 653.487243652)
(22.5 10.625 667.01763916)
(-4.375 3.125 641.489013672)
(-3.75 3.75 640.012451172)
(-5 5 652.78314209)
(-2.5 4.375 633.963134766)
(4.375 2.5 634.421081543)
(3.75 1.875 633.426879883)
(3.125 3.125 633.232055664)
(2.5 3.75 633.116088867)
(-5 23.125 659.789794922)
(2.5 6.875 652.679321289)
(11.25 -21.875 666.041625977)
(-21.25 13.125 665.08795166)
(3.125 5.625 651.446838379)
(3.75 6.25 652.83996582)
(3.75 5.625 652.395202637)
(-6.25 2.5 652.765869141)
(-2.5 -3.75 634.082641602)
(-3.75 -5.625 653.861206055)
(-6.25 -2.5 653.526367188)
(10.625 -10 655.267456055)
(11.25 -9.375 655.309692383)
(8.75 -12.5 655.516601562)
(13.125 -20.625 666.055969238)
(10.625 21.875 662.184936523)
(5 -5.625 654.356384277)
(1.875 -3.75 634.021850586)
(3.125 -3.125 633.985412598)
(4.375 -3.125 642.355224609)
(4.375 6.25 652.955200195)
(4.375 5.625 652.890197754)
(-22.5 -10.625 669.507324219)
(-21.875 -11.25 669.463562012)
(-21.25 -13.125 669.761962891)
(-13.125 -21.25 669.358215332)
(-4.375 -1.25 633.817626953)
(5.625 -4.375 654.13470459)
(-9.375 -11.25 656.18927002)
(13.125 -21.25 666.086303711)
(6.25 13.125 652.367858887)
(-11.25 21.875 662.08782959)
(9.375 -11.25 655.217773438)
(-2.5 -4.375 635.192443848)
(-4.375 -2.5 635.024169922)
(-10.625 -22.5 668.973754883)
(18.125 16.875 664.779724121)
(17.5 17.5 664.484680176)
(16.875 18.125 664.231628418)
(16.25 18.75 663.980285645)
(18.75 16.25 665.075378418)
(-20 14.375 664.642333984)
(-20 -14.375 669.690368652)
(-17.5 -17.5 669.692077637)
(-16.875 -18.125 669.679016113)
(-20.625 13.75 664.865478516)
(-18.75 16.25 664.163635254)
(-18.125 16.875 663.938110352)
(-13.75 20.625 662.673583984)
(-14.375 20 662.852905273)
(-22.5 10 665.717529297)
(19.375 15.625 665.371582031)
(-16.875 18.125 663.538757324)
(-17.5 17.5 663.711914062)
(-20.625 -13.75 669.727355957)
(-18.75 -16.25 669.784606934)
(-18.125 -16.875 669.739501953)
(-14.375 -20 669.420227051)
(-16.25 -18.75 669.662353516)
(18.75 -16.25 666.777282715)
(19.375 -15.625 666.915649414)
(18.125 -16.875 666.647521973)
(17.5 -17.5 666.526367188)
(20.625 13.75 666.028259277)
(20 14.375 665.730529785)
(15.625 19.375 663.73059082)
(-13.75 -20.625 669.390991211)
(10 22.5 662.003540039)
(-24.375 -3.75 668.499328613)
(-24.375 -4.375 668.644348145)
(-16.25 18.75 663.364257812)
(14.375 20 663.298339844)
(20 -14.375 667.074462891)
(20.625 -13.75 667.23425293)
(14.375 -20 666.167907715)
(-15.625 19.375 663.188354492)
(15.625 -19.375 666.292541504)
(16.25 -18.75 666.361206055)
(16.875 -18.125 666.439147949)
(1.25 24.375 660.829101562)
(0.625 24.375 660.828186035)
(-24.375 2.5 667.278564453)
(-24.375 1.875 667.394897461)
(-24.375 1.25 667.511230469)
(-24.375 0.625 667.627563477)
(-24.375 4.375 667.024353027)
(-24.375 3.75 667.109069824)
(-24.375 3.125 667.193847656)
(24.375 -2.5 668.492553711)
(24.375 -1.875 668.475524902)
(-11.25 -21.875 668.984313965)
(4.375 24.375 661.018920898)
(24.375 -4.375 668.485778809)
(23.75 -6.875 668.257385254)
(23.75 -6.25 668.256713867)
(12.5 21.25 662.626403809)
(-1.875 24.375 660.824584961)
(-2.5 24.375 660.823669434)
(-3.125 24.375 660.883056641)
(-0.625 24.375 660.826416016)
(-1.25 24.375 660.825500488)
(-24.375 -3.125 668.354248047)
(-23.75 -6.25 668.849243164)
(-23.75 -6.875 668.993774414)
(24.375 -3.75 668.488037109)
(-23.125 -8.75 669.240966797)
(-24.375 0 667.746337891)
(-24.375 -0.625 667.860168457)
(24.375 -0.625 668.441467285)
(24.375 0 668.428955078)
(24.375 -1.25 668.458496094)
(24.375 0.625 668.407409668)
(24.375 1.25 668.390441895)
(24.375 1.875 668.373413086)
(23.125 -8.75 668.011962891)
(-4.375 24.375 661.00177002)
(2.5 24.375 660.830932617)
(1.875 24.375 660.83001709)
(-24.375 -1.25 667.976501465)
(-23.125 8.75 666.047790527)
(23.125 8.75 667.441345215)
(23.75 6.875 667.847167969)
(-24.375 -1.875 668.092834473)
(-24.375 -2.5 668.20916748)
(-8.75 -23.125 668.608886719)
(-4.375 -24.375 667.847595215)
(-3.75 -24.375 667.707397461)
(11.25 21.875 662.313110352)
(-3.75 24.375 660.942443848)
(4.375 -24.375 666.485229492)
(6.25 -23.75 666.261291504)
(8.75 23.125 661.693725586)
(6.875 23.75 661.324401855)
(3.75 24.375 660.956237793)
(3.125 24.375 660.893554688)
(-8.75 23.125 661.58581543)
(-23.75 6.875 666.462524414)
(-23.75 6.25 666.547058105)
(-21.875 11.25 665.417419434)
(24.375 4.375 668.251831055)
(24.375 3.125 668.321533203)
(24.375 3.75 668.286682129)
(24.375 2.5 668.356384277)
(0 24.375 660.826538086)
(6.875 -23.75 666.212158203)
(8.75 -23.125 666.107299805)
(-6.25 23.75 661.212341309)
(-6.875 23.75 661.270690918)
(24.375 -3.125 668.49029541)
(6.25 23.75 661.260620117)
(-6.875 -23.75 668.268127441)
(-6.25 -23.75 668.130981445)
(23.75 6.25 667.883300781)
(-1.875 -24.375 667.329284668)
(-1.25 -24.375 667.231567383)
(-2.5 -24.375 667.426940918)
(3.75 -24.375 666.538635254)
(3.125 -24.375 666.59197998)
(2.5 -24.375 666.645324707)
(1.875 -24.375 666.743041992)
(0.625 -24.375 666.938476562)
(1.25 -24.375 666.840759277)
(-3.125 -24.375 667.567199707)
(0 -24.375 667.035888672)
(-0.625 -24.375 667.133850098)
(-4.375 5.625 652.704833984)
(-3.75 5.625 652.237182617)
(6.875 1.25 653.549865723)
(6.875 1.875 653.59765625)
(0.625 6.875 652.284790039)
(1.25 6.875 652.406494141)
(-11.875 8.125 653.346252441)
(-13.125 8.125 654.001342773)
(-6.875 0.625 653.382263184)
(-6.875 0 653.439453125)
(-6.875 -0.625 653.574707031)
(-5.625 4.375 652.94934082)
(-6.25 3.75 653.164733887)
(-6.875 2.5 653.406799316)
(-4.375 -3.75 648.007324219)
(-5.625 -4.375 654.263122559)
(1.25 -6.875 654.157287598)
(0.625 -6.875 654.06652832)
(1.875 -6.875 654.27154541)
(-3.125 -6.25 654.23638916)
(0 -6.875 654.041381836)
(-0.625 -6.875 654.098937988)
(6.875 -1.875 653.993469238)
(6.875 -1.25 653.813781738)
(6.875 -0.625 653.650878906)
(-1.875 5 640.491516113)
(6.25 3.75 653.39276123)
(-8.125 11.875 652.39630127)
(-6.25 -3.125 654.007080078)
(-5.625 -3.75 653.723022461)
(-5 1.875 641.039123535)
(-6.875 1.875 653.40838623)
(-6.875 1.25 653.385925293)
(5 1.25 637.403259277)
(6.875 0.625 653.518920898)
(6.875 0 653.546875)
(1.875 6.875 652.552307129)
(4.375 3.75 647.06451416)
(5 3.75 651.000488281)
(5.625 4.375 653.166931152)
(4.375 5 652.273193359)
(3.75 5 650.737426758)
(0 7.5 652.531494141)
(0.625 7.5 652.552062988)
(-2.5 6.875 652.567016602)
(-10.625 11.25 653.270141602)
(-21.25 10 663.815063477)
(10 11.875 653.669677734)
(10.625 11.25 653.8203125)
(11.25 10.625 654.026733398)
(-5 3.75 650.821228027)
(-5 3.125 648.387207031)
(6.25 -3.125 653.942626953)
(5.625 -3.125 652.663818359)
(5.625 -3.75 653.629516602)
(6.875 -2.5 654.147033691)
(6.25 -1.875 652.903015137)
(6.25 -2.5 653.497375488)
(1.875 5 640.565917969)
(2.5 6.25 652.170410156)
(-6.875 -1.25 653.770751953)
(-6.875 -1.875 653.985534668)
(-7.5 22.5 660.143920898)
(3.125 6.25 652.59387207)
(-1.25 -5 638.010498047)
(-2.5 -6.875 654.495239258)
(-1.875 -6.875 654.368408203)
(-1.875 -6.25 653.251953125)
(-2.5 -6.25 653.815551758)
(1.875 -5 641.817687988)
(2.5 -6.875 654.366455078)
(2.5 -6.25 653.704772949)
(1.875 -6.25 653.168579102)
(-3.75 -5 652.031066895)
(-1.25 -6.875 654.221984863)
(-6.875 -2.5 654.176147461)
(-5 -3.125 649.314758301)
(11.875 -10 655.958068848)
(13.125 -20 664.953125)
(12.5 -20.625 665.117797852)
(12.5 20 661.352416992)
(10 21.25 660.599182129)
(-0.625 7.5 652.5234375)
(4.375 -5.625 654.190063477)
(8.125 13.125 653.088745117)
(-18.75 15 663.262573242)
(-11.875 -10 656.952636719)
(-11.25 -9.375 656.167602539)
(3.75 -6.25 654.314453125)
(3.125 -6.25 654.098510742)
(5 -23.125 664.939208984)
(-1.875 6.875 652.468322754)
(-1.25 6.875 652.350585938)
(-0.625 6.875 652.256835938)
(0 6.875 652.229125977)
(-5 -1.875 641.59588623)
(5 -1.875 641.596191406)
(-10 -11.875 656.96282959)
(-10.625 -11.25 656.907653809)
(23.125 5 666.384460449)
(11.25 -10.625 655.858215332)
(23.125 -5 666.711425781)
(8.125 -11.875 655.165649414)
(10 -11.875 655.845031738)
(-10 -21.875 667.70489502)
(-23.75 5 665.994506836)
(-7.5 23.125 660.688598633)
(-11.875 21.25 661.556091309)
(11.875 -21.25 665.346374512)
(-22.5 9.375 665.158447266)
(7.5 -23.125 665.42791748)
(22.5 -9.375 667.174499512)
(-15 0.625 655.024047852)
(-15 1.25 654.958679199)
(-15 -0.625 655.240234375)
(-15 0 655.117858887)
(-23.75 -5 667.839050293)
(23.125 -7.5 667.355041504)
(-12.5 8.125 653.452819824)
(9.375 22.5 661.254943848)
(7.5 23.125 660.771911621)
(13.75 20 662.387023926)
(9.375 -22.5 665.437988281)
(21.25 11.875 665.790466309)
(23.75 -5 667.535949707)
(22.5 9.375 666.509338379)
(23.125 7.5 666.863342285)
(-5 -23.75 667.130126953)
(-7.5 -23.125 667.588256836)
(-10.625 21.875 661.295471191)
(15 1.25 655.418334961)
(15 0.625 655.42578125)
(15 1.875 655.434936523)
(4.375 -4.375 651.52746582)
(-0.625 4.375 632.932250977)
(5.625 2.5 650.667663574)
(-5 -13.75 655.943054199)
(-5.625 -13.75 656.035644531)
(3.75 -14.375 655.310241699)
(3.125 -14.375 655.325744629)
(2.5 -15 655.632873535)
(1.875 -15 655.572998047)
(10.625 -21.875 665.348632812)
(11.875 8.75 653.899780273)
(14.375 3.75 655.000915527)
(14.375 4.375 654.971374512)
(-4.375 0.625 633.541259766)
(5 0.625 634.693725586)
(4.375 1.25 633.549743652)
(15 -1.25 655.593811035)
(15 -0.625 655.513549805)
(3.75 4.375 646.936340332)
(-6.875 13.125 652.133300781)
(0.625 15 651.697021484)
(1.25 15 651.759460449)
(0 15 651.667663574)
(-0.625 15 651.671447754)
(4.375 14.375 652.028869629)
(5 14.375 652.2890625)
(-3.75 14.375 651.782165527)
(-3.125 14.375 651.757324219)
(-4.375 14.375 651.839782715)
(-1.875 15 651.777893066)
(-2.5 15 651.879882812)
(-1.25 15 651.708251953)
(-15 -1.875 655.570007324)
(-15 -1.25 655.390991211)
(-3.75 5 650.586791992)
(-3.125 4.375 641.264892578)
(-9.375 11.875 652.680908203)
(-13.75 -5.625 655.911071777)
(-13.75 -5 655.785583496)
(-11.25 -10 656.350097656)
(-21.875 10 664.572875977)
(20.625 -13.125 666.696716309)
(14.375 -5 655.836975098)
(14.375 -4.375 655.609313965)
(14.375 -3.75 655.547973633)
(7.5 13.125 652.667236328)
(6.875 13.125 652.455627441)
(6.25 13.75 652.399169922)
(21.875 10.625 666.099853516)
(-4.375 4.375 650.348999023)
(-2.5 3.75 633.028625488)
(-2.5 5.625 649.923950195)
(-14.375 4.375 654.321960449)
(-14.375 5 654.427307129)
(3.75 2.5 633.352355957)
(15 0 655.457519531)
(5.625 3.75 652.799804688)
(5.625 13.75 652.21472168)
(-11.25 10 653.08026123)
(-11.875 9.375 653.33001709)
(-15 1.875 654.921630859)
(8.75 11.875 652.906616211)
(9.375 11.875 653.151977539)
(4.375 3.125 641.632324219)
(2.5 5 644.635681152)
(-3.75 -2.5 633.965148926)
(3.125 -5 649.372680664)
(-0.625 -15 655.649047852)
(-1.25 -15 655.747436523)
(-1.875 -15 655.877258301)
(-1.25 -4.375 634.123168945)
(-3.125 -5.625 652.917602539)
(-5 14.375 652.071838379)
(-5.625 13.75 651.96105957)
(-6.25 13.75 652.115600586)
(-12.5 -8.125 656.162597656)
(-12.5 -8.75 656.552490234)
(-6.25 -13.75 656.237304688)
(-6.875 -13.125 656.117126465)
(-7.5 -13.125 656.339904785)
(4.375 -14.375 655.326660156)
(8.75 -11.875 655.2109375)
(1.25 -15 655.544433594)
(-3.75 -14.375 655.881408691)
(-4.375 -14.375 655.991821289)
(-3.125 -14.375 655.802429199)
(8.125 12.5 652.725158691)
(1.875 15 651.854797363)
(3.75 14.375 651.943481445)
(3.125 14.375 651.891174316)
(-14.375 3.75 654.386962891)
(-14.375 3.125 654.480529785)
(5 -23.75 665.626831055)
(15 -1.875 655.698181152)
(-4.375 -0.625 633.72454834)
(5 -3.75 651.849121094)
(-4.375 -6.25 654.590026855)
(-10 -11.25 656.360778809)
(-14.375 -3.75 655.673034668)
(-14.375 -3.125 655.552856445)
(11.25 10 653.674194336)
(-5 23.75 660.366516113)
(14.375 5 655.108276367)
(0 -15 655.582397461)
(-3.75 -4.375 648.058410645)
(-13.125 -7.5 656.280639648)
(-13.125 -6.875 656.033996582)
(-4.375 -3.125 642.404724121)
(6.25 -13.75 655.351013184)
(5.625 -13.75 655.235839844)
(-2.5 -5 645.940551758)
(-5 -2.5 645.726806641)
(0.625 -15 655.547546387)
(7.5 -13.125 655.350891113)
)

// edges

630
(
(58 59)
(62 367)
(368 63)
(63 64)
(64 62)
(70 71)
(369 370)
(371 372)
(85 373)
(86 374)
(375 376)
(376 377)
(125 378)
(124 379)
(378 126)
(380 127)
(125 0)
(379 0)
(128 129)
(130 128)
(1 130)
(381 131)
(382 132)
(132 1)
(383 384)
(135 133)
(137 138)
(139 140)
(385 383)
(386 143)
(142 144)
(144 145)
(387 384)
(388 387)
(389 390)
(390 391)
(147 72)
(148 392)
(393 150)
(151 394)
(152 395)
(396 154)
(161 397)
(398 399)
(167 166)
(400 168)
(173 171)
(401 369)
(402 401)
(403 372)
(404 405)
(178 406)
(178 2)
(407 408)
(409 410)
(64 165)
(411 181)
(182 412)
(375 399)
(413 184)
(414 190)
(191 415)
(192 416)
(417 418)
(60 194)
(195 164)
(196 61)
(367 196)
(126 196)
(198 199)
(419 174)
(420 421)
(422 389)
(423 424)
(175 425)
(393 177)
(180 200)
(201 179)
(403 203)
(176 426)
(377 427)
(427 428)
(47 429)
(207 430)
(208 207)
(206 208)
(209 0)
(146 431)
(432 433)
(434 435)
(141 436)
(385 437)
(438 439)
(211 143)
(128 211)
(440 129)
(441 388)
(433 441)
(212 395)
(442 153)
(131 443)
(214 444)
(216 445)
(446 216)
(447 123)
(217 448)
(449 409)
(219 136)
(220 134)
(450 218)
(391 402)
(207 222)
(208 223)
(223 222)
(188 451)
(46 452)
(453 454)
(455 156)
(455 456)
(457 94)
(149 197)
(458 459)
(411 458)
(460 459)
(461 371)
(460 461)
(228 462)
(463 170)
(172 221)
(229 421)
(229 174)
(138 229)
(2 223)
(230 464)
(465 183)
(163 162)
(90 163)
(189 232)
(55 202)
(466 116)
(467 213)
(105 468)
(235 210)
(169 236)
(469 215)
(470 234)
(155 471)
(40 472)
(473 48)
(474 49)
(475 53)
(57 476)
(59 60)
(60 58)
(58 3)
(3 59)
(63 62)
(477 69)
(4 70)
(71 4)
(4 72)
(78 478)
(479 480)
(481 482)
(479 482)
(483 82)
(83 484)
(485 85)
(485 86)
(87 486)
(90 5)
(95 487)
(97 488)
(489 99)
(490 104)
(106 491)
(492 107)
(493 114)
(117 494)
(120 495)
(121 496)
(497 498)
(499 497)
(124 125)
(129 130)
(6 381)
(132 6)
(7 133)
(134 7)
(7 135)
(136 133)
(135 136)
(134 500)
(500 138)
(141 139)
(140 141)
(139 142)
(142 140)
(144 139)
(144 8)
(8 142)
(145 8)
(146 145)
(144 146)
(147 4)
(501 72)
(147 148)
(148 501)
(148 9)
(9 149)
(502 150)
(10 151)
(154 152)
(503 504)
(505 506)
(507 508)
(157 509)
(510 11)
(511 512)
(161 3)
(161 162)
(513 161)
(513 163)
(13 60)
(164 13)
(514 14)
(14 166)
(14 167)
(168 14)
(400 514)
(515 168)
(15 515)
(170 167)
(171 16)
(16 170)
(166 170)
(171 172)
(172 173)
(173 16)
(516 517)
(175 70)
(17 404)
(178 17)
(407 518)
(18 180)
(179 18)
(19 519)
(520 521)
(522 520)
(523 522)
(524 525)
(526 527)
(528 526)
(529 530)
(523 531)
(531 529)
(165 181)
(20 182)
(182 21)
(532 533)
(481 533)
(534 535)
(21 536)
(537 538)
(22 539)
(22 183)
(540 413)
(541 185)
(542 543)
(543 544)
(545 546)
(547 189)
(190 12)
(12 191)
(191 23)
(23 192)
(548 193)
(417 194)
(58 194)
(13 194)
(549 195)
(13 195)
(195 24)
(164 24)
(549 196)
(197 24)
(24 550)
(197 9)
(551 64)
(552 553)
(126 61)
(198 25)
(25 554)
(198 15)
(199 15)
(554 199)
(420 174)
(517 555)
(175 26)
(175 71)
(177 556)
(27 179)
(180 25)
(200 25)
(18 200)
(26 201)
(201 27)
(27 26)
(18 201)
(557 547)
(203 176)
(558 559)
(558 20)
(560 480)
(561 562)
(206 207)
(405 563)
(206 564)
(209 127)
(169 565)
(565 28)
(29 566)
(567 568)
(568 569)
(431 145)
(146 570)
(136 30)
(30 141)
(143 571)
(440 128)
(31 210)
(28 31)
(528 572)
(573 574)
(575 576)
(153 212)
(443 396)
(577 504)
(578 579)
(580 505)
(32 33)
(32 213)
(214 34)
(35 581)
(582 508)
(125 418)
(135 219)
(219 30)
(134 36)
(36 220)
(220 7)
(221 36)
(137 218)
(583 584)
(585 583)
(208 222)
(188 586)
(521 587)
(588 524)
(589 588)
(590 591)
(19 10)
(156 29)
(592 457)
(516 593)
(550 149)
(163 594)
(594 228)
(90 228)
(37 228)
(37 169)
(221 595)
(173 221)
(172 36)
(595 229)
(596 211)
(408 223)
(590 552)
(230 597)
(598 599)
(446 231)
(162 5)
(5 163)
(546 232)
(600 11)
(601 202)
(555 498)
(602 512)
(603 567)
(129 604)
(605 606)
(607 131)
(608 609)
(34 213)
(234 33)
(35 234)
(571 610)
(154 611)
(612 603)
(582 612)
(215 38)
(38 613)
(31 235)
(236 28)
(37 236)
(570 39)
(39 235)
(210 39)
(237 471)
(238 239)
(240 241)
(239 240)
(41 40)
(42 43)
(242 238)
(44 45)
(46 243)
(48 47)
(49 50)
(244 51)
(245 246)
(53 52)
(54 55)
(243 247)
(248 56)
(249 248)
(250 251)
(252 57)
(253 242)
(254 255)
(256 244)
(65 257)
(257 258)
(258 245)
(66 259)
(260 67)
(69 68)
(74 73)
(261 262)
(263 261)
(264 263)
(75 76)
(77 78)
(265 266)
(241 267)
(79 80)
(82 81)
(259 268)
(84 83)
(269 87)
(89 88)
(270 271)
(272 254)
(255 249)
(91 92)
(246 260)
(93 94)
(96 95)
(273 97)
(99 98)
(101 100)
(274 275)
(102 276)
(104 103)
(105 106)
(107 108)
(110 109)
(111 112)
(277 272)
(278 279)
(114 113)
(115 116)
(118 117)
(280 264)
(119 120)
(279 280)
(281 282)
(73 121)
(122 250)
(283 284)
(284 285)
(285 286)
(287 288)
(288 289)
(290 291)
(97 123)
(292 155)
(98 157)
(100 293)
(158 104)
(103 159)
(106 294)
(295 296)
(297 160)
(298 299)
(299 300)
(301 302)
(303 270)
(304 305)
(81 304)
(51 65)
(67 66)
(294 306)
(307 79)
(45 307)
(286 308)
(308 309)
(184 252)
(185 75)
(76 186)
(186 187)
(187 77)
(310 311)
(312 310)
(313 314)
(314 315)
(193 158)
(159 265)
(78 316)
(302 298)
(305 44)
(204 53)
(157 204)
(317 54)
(318 319)
(319 281)
(205 89)
(247 205)
(50 122)
(309 320)
(321 42)
(57 321)
(262 274)
(291 312)
(266 253)
(311 313)
(322 107)
(323 114)
(324 325)
(325 303)
(109 292)
(112 326)
(327 328)
(216 102)
(108 193)
(217 269)
(329 217)
(160 329)
(123 297)
(300 330)
(330 317)
(56 46)
(320 324)
(224 225)
(80 224)
(226 256)
(92 226)
(225 91)
(268 227)
(227 110)
(331 93)
(94 332)
(333 96)
(95 334)
(293 335)
(335 336)
(47 337)
(337 74)
(43 338)
(338 339)
(340 184)
(88 340)
(341 115)
(267 273)
(342 343)
(344 342)
(282 345)
(345 301)
(271 82)
(83 295)
(316 84)
(332 346)
(346 69)
(68 347)
(347 99)
(87 333)
(336 318)
(251 277)
(339 41)
(276 278)
(231 216)
(52 231)
(343 341)
(315 344)
(55 348)
(348 349)
(350 290)
(306 350)
(349 48)
(121 233)
(233 49)
(289 283)
(40 287)
(275 185)
(334 351)
(351 101)
(113 322)
(352 353)
(353 118)
(117 327)
(354 323)
(116 354)
(326 119)
(355 356)
(357 355)
(358 331)
(359 358)
(360 359)
(361 360)
(120 352)
(362 363)
(363 361)
(155 237)
(237 111)
(364 357)
(328 364)
(365 362)
(366 365)
(356 366)
(296 105)
)

// concaveStart mixedStart nonFeatureStart
3 40 238
// internalStart flatStart openStart multipleStart
147 409 409 630
// normals

779
(
(-0.719316779823 -0.484134005818 0.498194374392)
(-0.699880864408 -0.491440175926 0.518317787773)
(-0.704916193139 -0.502057684307 0.501030181006)
(0.727054965253 -0.490134115743 0.480790626038)
(0.713250120654 -0.492811346501 0.498408709943)
(-0.716048268793 -0.47335740579 0.513037662499)
(0.653741022695 0.607268841004 0.451494440709)
(0.70887304859 -0.566005145946 0.420876675222)
(0.659002921452 -0.538293449696 0.525314488219)
(0.654912751809 -0.541971931723 0.526645718432)
(0.660293597564 0.644762144335 0.38508978466)
(0.633900032916 0.624360998597 0.456447249635)
(-0.587729999111 0.605090219503 0.537065428422)
(0.64441859358 -0.568448923697 0.511459184488)
(0.700475218913 -0.529723291967 0.478254850092)
(0.680787496876 -0.482524956284 0.551088060713)
(0.690980048819 -0.503989329588 0.518209733405)
(0.684031714162 -0.544885748905 0.484974364953)
(0.705839569193 -0.472278338481 0.527961810704)
(-0.707826400156 -0.449627248024 0.544809255682)
(0.676290492423 -0.536417624667 0.504863646746)
(0.649669299963 0.623969215376 0.434272056376)
(0.630325467088 0.596294494165 0.49711435482)
(0.641200621045 0.607351970502 0.469025956104)
(0.64643935915 0.611853985463 0.455796945376)
(0.662846627689 0.64029308829 0.388148308317)
(0.620296912912 0.604126299525 0.50026308484)
(-0.575835218868 0.622847452922 0.529598764255)
(0.6478342902 -0.524023319419 0.552910746095)
(-0.646268350518 0.52330650825 0.555416526169)
(-0.65508353528 0.546836403615 0.521378470486)
(-0.657019023455 0.558960169202 0.505855248133)
(-0.670126094817 0.535166657194 0.514322531174)
(-0.686814074148 0.505963565975 0.521811553589)
(-0.72531724435 -0.499802710731 0.47340484302)
(-0.689028879875 -0.467927840768 0.553428169262)
(0.646440243914 0.595265666566 0.477256531916)
(0.664874410816 0.605607460575 0.437243206394)
(0.645572441612 0.625046109084 0.438809279927)
(-0.701460889457 0.521769319937 0.485499121868)
(-0.664603177301 -0.500416660609 0.55487456466)
(0.699900965257 -0.497764044116 0.512220260451)
(0.876769955942 0.108698430228 0.468464615124)
(0.671573983011 -0.525830092209 0.522006800215)
(0.695474762194 -0.513607032255 0.502516339604)
(0.643764071653 0.609115162231 0.463191687305)
(0.63007797131 0.617526067766 0.470811327073)
(-0.557032170711 0.656004851042 0.509286556078)
(-0.672227197504 -0.519782935284 0.527196638006)
(-0.706388429075 -0.516059539505 0.484456333382)
(-0.568239653612 0.60136868361 0.561657727122)
(-0.652409362072 -0.557819523676 0.513029631978)
(-0.677866476214 0.554429428518 0.482809537207)
(-0.632368692613 0.596400248882 0.494385052097)
(-0.715830476046 -0.483079708384 0.504203059204)
(-0.704881543058 0.535709972724 0.464926698932)
(-0.723744569349 -0.460687877696 0.513770841604)
(0.624780740714 0.622154643655 0.471776033103)
(0.623201975081 0.607273028845 0.492786735508)
(0.660430289876 -0.503697739199 0.556884565903)
(-0.614302981979 0.552399465791 0.563459560683)
(-0.730033797092 -0.485027928821 0.481454632719)
(-0.726916271229 -0.505665101534 0.464645606578)
(0.631242773414 0.626826928688 0.456749999983)
(-0.643656982083 0.57283340255 0.507511164744)
(0.635686754848 0.613104713477 0.469046863355)
(-0.633389360208 0.567827374881 0.525728057756)
(-0.000687831485319 -0.882900494556 0.469559627311)
(0.123023068152 -0.718414601789 0.68465011841)
(0.654445505213 -0.487262937623 0.578165988558)
(0.909067990998 0.0762423475685 0.40961261233)
(0.909067990998 0.0762423475685 0.40961261233)
(0.913845517637 0.0743052581638 0.399205584259)
(0.879568675753 0.0639050105708 0.471460596718)
(0.879566086917 0.0639508634175 0.471459209067)
(-0.912978216139 0.0111125086076 0.407856946744)
(-0.19616210961 -0.714913562187 0.671132643637)
(0.128578809366 0.865436112617 0.484239429168)
(-0.00471399279224 0.757933597867 0.652314678278)
(-0.0614943889656 -0.787571273676 0.613147558917)
(-0.816601217264 0.0482501338306 0.575182037748)
(-0.870607226108 0.049190359964 0.489513397504)
(-0.834768398046 -0.00198946413705 0.550597642254)
(-0.894966674536 0.00047924415441 0.446132740106)
(-0.67407204131 -0.51661326709 0.527956073353)
(-0.000740901970241 -0.862656860684 0.505789078351)
(0.0480044471766 -0.861662559033 0.505206103894)
(-0.000675385838184 -0.887366939929 0.461063398867)
(0.890761506595 0.10276354597 0.442700341076)
(0.891313095051 0.102150295667 0.441731008292)
(0.891313095051 0.102150295667 0.441731008292)
(0.775241109498 0.158702315854 0.611403955734)
(0.186098079782 0.756753980462 0.626650554741)
(-0.862529215268 -0.0018283346299 0.506003962437)
(0.856468235964 0.133247872944 0.498705489382)
(0.856468235964 0.133247872944 0.498705489382)
(0.917551431446 0.0742341947197 0.390625978381)
(0.917757586063 0.0711602668278 0.390713743869)
(0.72377564672 -0.565659574169 0.39519369854)
(-0.748546199082 -0.0216810458838 0.662728089106)
(-0.872948782591 -0.00585903635593 0.487776685242)
(-0.678996302881 0.539844573976 0.497525734633)
(-0.874202993687 -0.00862871874022 0.485483955494)
(-0.921733006871 0.00776252018768 0.387747349863)
(-0.917638167419 0.0108240412933 0.397269472556)
(-0.92069195132 0.0105918627133 0.390146310015)
(-0.914049449346 0.0110469913956 0.405452300685)
(-0.718793937302 -0.49369580265 0.48948925437)
(-0.703366544815 -0.435192612863 0.562034601554)
(-0.796173496047 -0.0143545154726 0.604898100573)
(-0.000705940785565 -0.876213703044 0.481922242946)
(0.815822623478 0.130293921386 0.563433173563)
(-0.00946414647517 0.747862040302 0.663786711683)
(-0.586057637048 0.614137199718 0.528556473786)
(0.0577260605436 -0.792205638683 0.607517841692)
(-0.000708246917196 -0.875345973193 0.483496562139)
(-0.000708246917196 -0.875345973193 0.483496562139)
(0.862293157934 0.0234654397032 0.505865479075)
(0.673950259004 -0.471498578266 0.568753144239)
(0.149776699923 -0.795810476372 0.586730454176)
(0.916614802557 0.0731541668903 0.393021337333)
(0.897382764078 0.0377809220356 0.439632547324)
(0.799710297519 0.0514641908045 0.598176292666)
(-0.820238970342 0.352925203875 0.450168670613)
(-0.912978216139 0.0111125086076 0.407856946744)
(-0.84764787801 -0.297716750273 0.439155794122)
(-0.921678439848 0.0133658897899 0.387724395039)